96
# CELL(abcABC): 13.00 13.00 21.33 90.0 90.0 90.0 Step: 0 Bead: 25 positions{angstrom} cell{angstrom}
C 2.590469 0.078570 1.057916
C 1.383731 1.750650 4.090348
C 2.976428 0.198244 1.463128
C 1.023004 1.535311 0.758563
C 0.896004 2.117265 0.185599
C 0.722286 2.838262 3.898509
C 0.509578 1.735345 2.502465
C -2.332498 1.795725 1.517477
C -1.695224 1.150783 -0.416522
C -1.665523 0.373099 3.827916
C -1.874717 1.078536 1.263729
C -2.226571 0.566821 0.807292
C -1.813663 0.598103 0.146885
C -2.706071 -1.079954 3.276032
C -3.077547 -1.369054 2.492176
C -1.661544 -1.684182 1.881596
C -0.615818 -2.632038 0.228589
C -0.206660 -1.178721 3.503802
C 0.223779 -2.527122 1.133334
C 0.807133 -2.130280 1.717072
C 1.459221 -2.450706 -0.082871
C 1.274549 -1.428468 4.218274
C 3.107481 -0.554786 2.352235
C 2.726460 -0.853805 1.974948
C 2.557891 -0.518847 3.920780
C 2.054486 2.061227 7.764681
C 2.295815 2.551112 6.754270
C 0.924637 1.714617 5.096078
C 1.879531 2.185434 3.792544
C -0.379068 2.900590 7.312064
C 0.021598 2.305678 7.376981
C -0.876933 2.007350 5.852676
C -0.648325 1.890334 5.063465
C -3.024098 1.723669 7.625722
C -1.949360 1.043969 6.105108
C -1.455539 -0.145504 5.262258
C -2.272985 -0.730172 4.713033
C -1.518818 -1.612264 8.227816
C -1.648635 -1.284535 7.063805
C -1.527090 -1.592879 6.135913
C -0.915602 -2.261431 4.629074
C -0.201258 -2.230262 7.500152
C -0.516033 -2.200442 6.933298
C 0.989602 -2.277436 6.077485
C 1.112454 -1.786731 4.619142
C 2.047719 -1.377149 7.849998
C 1.818996 -0.779488 7.153983
C 2.424618 -0.515335 6.698564
C 1.955774 0.158855 8.297590
C 2.177075 1.190014 11.762480
C 1.971735 0.990415 10.461537
C 0.634635 1.238519 9.423668
C 0.820876 1.835466 9.309266
C -0.545538 2.583327 12.368784
C 0.373502 1.590719 11.127688
C -0.346215 1.408465 10.459912
C -1.041891 1.880998 8.763479
C -2.377721 1.407128 11.461553
C -1.698963 1.298371 9.883933
C -1.596930 -0.623631 10.956458
C -1.142418 0.068392 8.320274
C -2.097653 -1.625469 12.549644
C -1.359273 -0.777647 10.560499
C -0.839522 -1.551617 9.579228
C -0.621517 -1.987821 8.573633
C -0.562653 -1.992539 11.665970
C -0.144628 -1.959836 10.478590
C 0.767091 -1.699227 9.439808
C 1.196049 -1.848900 8.659620
C 1.695865 -1.282563 12.027870
C 1.437881 -1.549535 10.636344
C 2.649652 -0.534809 8.797016
C 2.285577 0.520501 12.960580
C 2.136516 0.339762 16.960414
C 2.548892 1.118148 14.579488
C 2.511698 1.221830 14.087419
C 0.563091 2.471516 12.837759
C 0.166461 1.757891 16.883485
C 0.573106 1.937957 15.793720
C -1.359017 1.928331 14.649808
C -1.079818 2.428747 13.011069
C -1.844820 1.480015 15.933048
C -1.637138 1.538249 14.670009
C -2.483386 0.777855 13.896097
C -1.760940 -0.577218 12.544135
C -2.008917 -1.591986 15.654411
C -2.300316 -1.127726 15.313971
C -2.459152 -2.694317 14.031914
C -0.464000 -2.040889 12.277911
C -0.224545 -2.222796 16.314748
C 0.327996 -2.517363 14.508383
C 1.234768 -1.931748 13.935029
C 1.318348 -2.084261 13.314763
C 1.856161 -0.595112 15.192614
C 2.604217 -1.319205 14.522476
C 2.675692 0.248839 13.859912
