104
 O         0.000000        0.000000        0.119000
 H         0.000000        0.763000       -0.477000
 H         0.000000       -0.763000       -0.477000
 C         0.214000        5.373000        1.052000
 C        -1.536000        3.727000        3.935000
 C        -1.227000        4.149000        2.615000
 C        -1.582000        3.349000        1.512000
 C        -1.273000        3.772000        0.192000
 C        -1.951000        1.555000        3.143000
 C        -1.642000        1.978000        1.823000
 C        -0.814000        1.189000        1.001000
 C        -0.505000        1.612000       -0.319000
 C        -0.206000       -0.014000        3.049000
 C         0.103000        0.408000        1.729000
 C         1.440000        0.631000        1.350000
 C         1.749000        1.054000        0.030000
 C         1.954000        0.588000        3.748000
 C         2.263000        1.011000        2.428000
 C         2.927000        2.233000        2.210000
 C         3.236000        2.655000        0.890000
 C         2.369000        2.760000        4.540000
 C         2.678000        3.182000        3.220000
 C         2.159000        4.393000        2.722000
 C         2.468000        4.815000        1.402000
 C         0.624000        4.330000        4.633000
 C         0.933000        4.752000        3.313000
 C        -0.095000        4.951000        2.372000
 C        -0.713000        4.107000        5.012000
 C        -2.463000        2.460000        7.895000
 C        -2.154000        2.883000        6.575000
 C        -2.509000        2.083000        5.472000
 C        -2.200000        2.505000        4.152000
 C        -2.878000        0.288000        7.103000
 C        -2.569000        0.711000        5.783000
 C        -1.741000       -0.077000        4.961000
 C        -1.432000        0.345000        3.641000
 C        -1.133000       -1.281000        7.009000
 C        -0.824000       -0.859000        5.689000
 C         0.513000       -0.636000        5.310000
 C         0.822000       -0.213000        3.990000
 C         1.026000       -0.678000        7.708000
 C         1.336000       -0.256000        6.388000
 C         2.000000        0.966000        6.171000
 C         2.309000        1.388000        4.850000
 C         1.442000        1.493000        8.500000
 C         1.751000        1.916000        7.180000
 C         1.232000        3.126000        6.682000
 C         1.541000        3.548000        5.362000
 C        -0.303000        3.063000        8.593000
 C         0.006000        3.485000        7.273000
 C        -1.023000        3.684000        6.332000
 C        -1.641000        2.840000        8.973000
 C        -3.391000        1.193000       11.855000
 C        -3.081000        1.616000       10.535000
 C        -3.436000        0.816000        9.432000
 C        -3.127000        1.238000        8.112000
 C        -3.806000       -0.978000       11.063000
 C        -3.497000       -0.556000        9.743000
 C        -2.669000       -1.344000        8.921000
 C        -2.360000       -0.922000        7.601000
 C        -2.061000       -2.548000       10.970000
 C        -1.752000       -2.126000        9.649000
 C        -0.414000       -1.903000        9.270000
 C        -0.105000       -1.480000        7.950000
 C         0.099000       -1.945000       11.668000
 C         0.408000       -1.523000       10.348000
 C         1.072000       -0.301000       10.131000
 C         1.382000        0.121000        8.811000
 C         0.514000        0.226000       12.460000
 C         0.823000        0.649000       11.140000
 C         0.305000        1.859000       10.642000
 C         0.614000        2.281000        9.322000
 C        -1.231000        1.796000       12.553000
 C        -0.921000        2.218000       11.233000
 C        -1.950000        2.417000       10.293000
 C        -2.568000        1.573000       12.933000
 C        -4.318000       -0.074000       15.815000
 C        -4.009000        0.349000       14.495000
 C        -4.364000       -0.451000       13.392000
 C        -4.055000       -0.029000       12.072000
 C        -4.733000       -2.245000       15.023000
 C        -4.424000       -1.823000       13.703000
 C        -3.596000       -2.611000       12.881000
 C        -3.287000       -2.189000       11.561000
 C        -2.988000       -3.815000       14.930000
 C        -2.679000       -3.392000       13.610000
 C        -1.342000       -3.169000       13.230000
 C        -1.032000       -2.747000       11.910000
 C        -0.828000       -3.212000       15.628000
 C        -0.519000       -2.790000       14.308000
 C         0.145000       -1.568000       14.091000
 C         0.454000       -1.145000       12.771000
 C        -0.413000       -1.040000       16.420000
 C        -0.104000       -0.618000       15.100000
 C        -0.623000        0.592000       14.602000
 C        -0.314000        1.015000       13.282000
 C        -2.158000        0.529000       16.514000
 C        -1.849000        0.951000       15.194000
 C        -2.877000        1.150000       14.253000
 H        -1.826000        0.132000        0.672000
 H         1.580000        2.544000        0.060000
 H         1.534000        3.445000        1.258000
 H         4.101000        3.609000        1.660000
 H         3.734000        0.943000        4.713000
