96
Generated rattled carbon nanotube 1
C 2.241256 -0.098916 0.079772
C 1.239201 1.082776 3.151619
C 2.976547 1.451134 2.287753
C 0.662134 1.667618 1.984902
C 1.374492 1.780533 -0.297266
C -1.311836 2.933410 2.760503
C -0.318384 2.603203 2.299611
C -0.941769 2.510300 1.344248
C -1.963372 2.843257 0.466594
C -3.072141 1.802140 2.925292
C -2.870195 0.926725 1.523933
C -2.799532 -0.093519 0.890792
C -2.244366 -0.442010 -0.659832
C -2.756331 -0.386573 3.429455
C -2.060205 -1.327707 1.708835
C -1.494374 -1.917710 1.147624
C -1.536382 -2.078596 -0.245242
C -0.703002 -2.571691 3.325609
C -0.533940 -2.258389 2.061879
C 1.730874 -1.703231 2.257899
C 0.860025 -2.342436 0.545058
C 2.216394 -1.607581 3.719599
C 3.855471 -1.502573 2.611566
C 1.970043 -0.073622 1.781151
C 2.176248 0.676889 3.452268
C 1.873801 0.624917 8.009446
C 1.497492 2.083157 6.745601
C 0.877256 2.747715 6.041351
C 1.175356 2.031897 4.011973
C -0.306670 1.962127 8.054114
C 0.668345 3.088511 6.947537
C -0.916717 1.809670 6.108672
C -0.545796 2.349616 4.038201
C -2.836624 0.269040 7.718131
C -1.427547 1.035465 6.984662
C -2.298779 -0.353290 6.275801
C -1.808564 0.234856 4.503473
C -1.881645 -2.218382 7.113839
C -1.217697 -1.456448 6.524273
C -1.849585 -2.383139 5.493054
C -1.126139 -2.065436 3.356158
C 0.453255 -1.555447 7.908178
C 0.425478 -2.653788 6.160463
C 1.745702 -1.993390 5.506510
C 1.745865 -2.422783 5.174013
C 2.818908 -0.582052 7.620977
C 1.631273 -0.579259 6.655591
C 2.155137 -0.058977 5.818418
C 3.017103 -1.093956 8.425460
C 2.222304 1.267393 11.476287
C 2.481712 0.560742 10.504318
C 1.570513 1.979180 9.917915
C 1.620803 2.228385 8.287718
C -0.919924 2.701430 12.720153
C -0.052637 1.744889 11.561172
C -1.884346 2.615599 9.897965
C -1.032629 2.141311 8.038879
C -3.085930 0.758745 11.434152
C -1.813439 0.944435 10.875440
C -2.323881 0.205457 8.886144
C -2.574860 0.080034 8.603669
C -1.624163 -0.947937 12.236390
C -1.349218 -1.503202 9.839419
C -1.230876 -2.527755 10.255079
C -1.602658 -2.131901 9.437056
C -0.184815 -2.816649 11.681028
C 1.165283 -2.783334 10.985859
C 0.982225 -1.593705 11.008886
C 0.956957 -1.771188 8.409845
C 2.128921 -1.771916 11.940479
C 1.999368 -0.406298 10.532344
C 2.589699 -0.214240 10.333995
C 2.849873 1.075138 12.465387
C 2.020843 0.797927 16.175018
C 2.558439 1.239107 15.224705
C 1.216708 1.311194 14.475656
C 1.247912 2.222896 12.598527
C 0.214272 2.558699 17.462861
C 0.189398 2.877980 14.713770
C -1.911368 2.505432 14.809081
C -0.492619 2.282045 13.180361
C -2.792501 1.853432 16.485181
C -1.707186 1.553441 14.484797
C -2.453483 0.280844 13.963620
C -2.162567 -1.124818 12.194046
C -1.350282 -1.747438 16.289191
C -2.020247 -1.156991 14.688696
C -0.535524 -2.624793 14.196071
C -1.859294 -2.126384 12.540224
C 0.109801 -2.156159 16.176984
C 0.242577 -2.462076 15.190186
C 1.234541 -2.006484 13.653860
C 2.099534 -1.697231 12.484072
C 1.460863 -1.403062 15.380141
C 1.786537 -0.863788 15.514710
C 2.490871 0.164191 13.996980
