120

C 2.348661 0.000000 0.000000
C 2.034000 1.174331 3.550000
C 2.034000 1.174331 2.130000
C 1.174331 2.034000 1.420000
C 1.174331 2.034000 0.000000
C 0.000000 2.348661 3.550000
C 0.000000 2.348661 2.130000
C -1.174331 2.034000 1.420000
C -1.174331 2.034000 0.000000
C -2.034000 1.174331 3.550000
C -2.034000 1.174331 2.130000
C -2.348661 0.000000 1.420000
C -2.348661 0.000000 0.000000
C -2.034000 -1.174331 3.550000
C -2.034000 -1.174331 2.130000
C -1.174331 -2.034000 1.420000
C -1.174331 -2.034000 0.000000
C -0.000000 -2.348661 3.550000
C -0.000000 -2.348661 2.130000
C 1.174331 -2.034000 1.420000
C 1.174331 -2.034000 0.000000
C 2.034000 -1.174331 3.550000
C 2.034000 -1.174331 2.130000
C 2.348661 -0.000000 1.420000
C 2.348661 0.000000 4.260000
C 2.034000 1.174331 7.810000
C 2.034000 1.174331 6.390000
C 1.174331 2.034000 5.680000
C 1.174331 2.034000 4.260000
C 0.000000 2.348661 7.810000
C 0.000000 2.348661 6.390000
C -1.174331 2.034000 5.680000
C -1.174331 2.034000 4.260000
C -2.034000 1.174331 7.810000
C -2.034000 1.174331 6.390000
C -2.348661 0.000000 5.680000
C -2.348661 0.000000 4.260000
C -2.034000 -1.174331 7.810000
C -2.034000 -1.174331 6.390000
C -1.174331 -2.034000 5.680000
C -1.174331 -2.034000 4.260000
C -0.000000 -2.348661 7.810000
C -0.000000 -2.348661 6.390000
C 1.174331 -2.034000 5.680000
C 1.174331 -2.034000 4.260000
C 2.034000 -1.174331 7.810000
C 2.034000 -1.174331 6.390000
C 2.348661 -0.000000 5.680000
C 2.348661 0.000000 8.520000
C 2.034000 1.174331 12.070000
C 2.034000 1.174331 10.650000
C 1.174331 2.034000 9.940000
C 1.174331 2.034000 8.520000
C 0.000000 2.348661 12.070000
C 0.000000 2.348661 10.650000
C -1.174331 2.034000 9.940000
C -1.174331 2.034000 8.520000
C -2.034000 1.174331 12.070000
C -2.034000 1.174331 10.650000
C -2.348661 0.000000 9.940000
C -2.348661 0.000000 8.520000
C -2.034000 -1.174331 12.070000
C -2.034000 -1.174331 10.650000
C -1.174331 -2.034000 9.940000
C -1.174331 -2.034000 8.520000
C -0.000000 -2.348661 12.070000
C -0.000000 -2.348661 10.650000
C 1.174331 -2.034000 9.940000
C 1.174331 -2.034000 8.520000
C 2.034000 -1.174331 12.070000
C 2.034000 -1.174331 10.650000
C 2.348661 -0.000000 9.940000
C 2.348661 0.000000 12.780000
C 2.034000 1.174331 16.330000
C 2.034000 1.174331 14.910000
C 1.174331 2.034000 14.200000
C 1.174331 2.034000 12.780000
C 0.000000 2.348661 16.330000
C 0.000000 2.348661 14.910000
C -1.174331 2.034000 14.200000
C -1.174331 2.034000 12.780000
C -2.034000 1.174331 16.330000
C -2.034000 1.174331 14.910000
C -2.348661 0.000000 14.200000
C -2.348661 0.000000 12.780000
C -2.034000 -1.174331 16.330000
C -2.034000 -1.174331 14.910000
C -1.174331 -2.034000 14.200000
C -1.174331 -2.034000 12.780000
C -0.000000 -2.348661 16.330000
C -0.000000 -2.348661 14.910000
C 1.174331 -2.034000 14.200000
C 1.174331 -2.034000 12.780000
C 2.034000 -1.174331 16.330000
C 2.034000 -1.174331 14.910000
C 2.348661 -0.000000 14.200000
O        -0.753000        1.969000       10.579000
 H        -1.074000        1.068000       10.339000
 H         0.005000        2.085000        9.990000
 O         0.338000        0.706000       15.398000
 H         0.701000        1.581000       15.545000
 H         0.617000        0.499000       14.422000
 O         0.921000        1.275000        5.058000
 H         1.184000        0.434000        4.652000
 H         1.719000        1.840000        5.048000
 O         1.674000       -0.916000       16.976000
 H         0.870000       -0.423000       16.809999
 H         1.770000       -1.539000       16.252001
 O         1.009000        1.005000       12.910000
 H         0.614000        1.638000       12.315000
 H         1.215000        0.212000       12.383000
 O         1.580000       -1.551000       11.788000
 H         2.190000       -2.000000       11.172000
 H         0.696000       -1.944000       11.641000
 O        -0.812000        0.281000        7.114000
 H        -0.012000        0.690000        6.703000
 H        -1.447000        0.929000        6.930000
 O         0.778000        1.422000        1.200000
 H         1.201000        0.892000        0.560000
 H         0.056000        0.906000        1.415000

